LTspice 24.0.12 for Windows
Circuit: * D:\OneDrive\Documentos\Facultad\Teoria de Circuitos 2\Teoria-de-Circuitos-2\Simulaciones\20240513\Draft1.asc
Start Time: Fri Sep 20 07:07:48 2024
Number of points per decade reduced from 100000 to 12685.
solver = Normal
Maximum thread count: 8
tnom = 27
temp = 27
method = modified trap
.OP point found by inspection.
Total elapsed time: 0.422 seconds.

