LTspice 24.0.12 for Windows
Circuit: * D:\OneDrive\Documentos\Facultad\Teoria de Circuitos 2\Teoria-de-Circuitos-2\Simulaciones\20240513\ejercicio3_desnormalizado.asc
Start Time: Fri Aug 23 08:37:03 2024
solver = Normal
Maximum thread count: 8
tnom = 27
temp = 27
method = modified trap
.OP point found by inspection.
Total elapsed time: 0.060 seconds.

