LTspice 24.0.12 for Windows
Circuit: * D:\OneDrive\Documentos\Facultad\Teoria de Circuitos 2\Teoria-de-Circuitos-2\Simulaciones\20230927\Ejercicio1.asc
Start Time: Thu Aug 22 07:07:36 2024
solver = Normal
Maximum thread count: 8
tnom = 27
temp = 27
method = modified trap
.OP point found by inspection.
Total elapsed time: 0.033 seconds.

