LTspice 24.0.12 for Windows
Circuit: * D:\OneDrive\Documentos\Facultad\Teoria de Circuitos 2\Teoria-de-Circuitos-2\Simulaciones\20230726\20230726 - Ejercicio 1 - item d.asc
Start Time: Mon Aug 26 07:14:05 2024
solver = Normal
Maximum thread count: 8



.OP point found by inspection.
Ignoring empty pin current: Ix(u1:1)
Ignoring empty pin current: Ix(u1:2)
Ignoring empty pin current: Ix(u2:1)
Ignoring empty pin current: Ix(u2:2)
Ignoring empty pin current: Ix(u4:1)
Ignoring empty pin current: Ix(u4:2)
Ignoring empty pin current: Ix(u1:1)
Ignoring empty pin current: Ix(u1:2)
Ignoring empty pin current: Ix(u2:1)
Ignoring empty pin current: Ix(u2:2)
Ignoring empty pin current: Ix(u4:1)
Ignoring empty pin current: Ix(u4:2)
.step run=1



.step run=2



.step run=3



.step run=4



.step run=5



.step run=6



.step run=7



.step run=8



.step run=9



.step run=10



.step run=11



.step run=12



.step run=13



.step run=14



.step run=15



.step run=16



.step run=17



.step run=18



.step run=19



.step run=20



.step run=21



.step run=22



.step run=23



.step run=24



.step run=25



.step run=26



.step run=27



.step run=28



.step run=29
tnom = 27
temp = 27
method = modified trap
.step run=30
Total elapsed time: 2.446 seconds.

