LTspice 24.0.12 for Windows
Circuit: * D:\OneDrive\Documentos\Facultad\Teoria de Circuitos 2\Teoria-de-Circuitos-2\20230726\LTspice\20230726 - Ejercicio 1.asc
Start Time: Tue Aug  6 06:26:25 2024
solver = Normal
Maximum thread count: 8
tnom = 27
temp = 27
method = modified trap
.OP point found by inspection.
Total elapsed time: 0.032 seconds.

